  949.30      308.43      16.85
    0.25000E+02    0.30842E+03    0.16847E+02   -0.13428E+02   -0.71111E+00
    0.75000E+02    0.30840E+03    0.16842E+02   -0.13483E+02   -0.33333E+00
    0.12500E+03    0.30839E+03    0.16836E+02   -0.13539E+02    0.44444E-01
    0.17500E+03    0.30837E+03    0.16831E+02   -0.13594E+02    0.42222E+00
    0.22500E+03    0.30835E+03    0.16812E+02   -0.13650E+02    0.80000E+00
    0.27500E+03    0.30836E+03    0.16774E+02   -0.13706E+02    0.11778E+01
    0.32500E+03    0.30837E+03    0.16715E+02   -0.13761E+02    0.15556E+01
    0.37500E+03    0.30840E+03    0.16635E+02   -0.13817E+02    0.19333E+01
    0.42500E+03    0.30845E+03    0.16534E+02   -0.13872E+02    0.23111E+01
    0.47500E+03    0.30850E+03    0.16411E+02   -0.13777E+02    0.26176E+01
    0.52500E+03    0.30857E+03    0.16267E+02   -0.13532E+02    0.28529E+01
    0.57500E+03    0.30865E+03    0.16102E+02   -0.13287E+02    0.30882E+01
    0.62500E+03    0.30875E+03    0.15915E+02   -0.13042E+02    0.33235E+01
    0.67500E+03    0.30886E+03    0.15707E+02   -0.12797E+02    0.35588E+01
    0.72500E+03    0.30897E+03    0.15491E+02   -0.12552E+02    0.37941E+01
    0.77500E+03    0.30907E+03    0.15286E+02   -0.12307E+02    0.40294E+01
    0.82500E+03    0.30917E+03    0.15091E+02   -0.12062E+02    0.42647E+01
    0.87500E+03    0.30925E+03    0.14907E+02   -0.11817E+02    0.45000E+01
    0.92500E+03    0.30932E+03    0.14732E+02   -0.11572E+02    0.47353E+01
    0.97500E+03    0.30938E+03    0.14569E+02   -0.11354E+02    0.49260E+01
    0.10250E+04    0.30943E+03    0.14415E+02   -0.11200E+02    0.50125E+01
    0.10750E+04    0.30948E+03    0.14272E+02   -0.11046E+02    0.50990E+01
    0.11250E+04    0.30951E+03    0.14139E+02   -0.10892E+02    0.51856E+01
    0.11750E+04    0.30953E+03    0.14016E+02   -0.10738E+02    0.52721E+01
    0.12250E+04    0.30954E+03    0.13901E+02   -0.10585E+02    0.53587E+01
    0.12750E+04    0.30958E+03    0.13753E+02   -0.10431E+02    0.54452E+01
    0.13250E+04    0.30964E+03    0.13569E+02   -0.10277E+02    0.55317E+01
    0.13750E+04    0.30973E+03    0.13348E+02   -0.10123E+02    0.56183E+01
    0.14250E+04    0.30983E+03    0.13092E+02   -0.99692E+01    0.57048E+01
    0.14750E+04    0.30997E+03    0.12799E+02   -0.98154E+01    0.57913E+01
    0.15250E+04    0.31013E+03    0.12470E+02   -0.95382E+01    0.58000E+01
    0.15750E+04    0.31031E+03    0.12105E+02   -0.92473E+01    0.58000E+01
    0.16250E+04    0.31051E+03    0.11704E+02   -0.89564E+01    0.58000E+01
    0.16750E+04    0.31074E+03    0.11266E+02   -0.86655E+01    0.58000E+01
    0.17250E+04    0.31100E+03    0.10793E+02   -0.83745E+01    0.58000E+01
    0.17750E+04    0.31126E+03    0.10315E+02   -0.80836E+01    0.58000E+01
    0.18250E+04    0.31152E+03    0.98378E+01   -0.77927E+01    0.58000E+01
    0.18750E+04    0.31178E+03    0.93599E+01   -0.75018E+01    0.58000E+01
    0.19250E+04    0.31206E+03    0.88815E+01   -0.72109E+01    0.58000E+01
    0.19750E+04    0.31233E+03    0.84028E+01   -0.69200E+01    0.58000E+01
    0.20250E+04    0.31261E+03    0.79236E+01   -0.66291E+01    0.58000E+01
    0.20750E+04    0.31290E+03    0.74441E+01   -0.61120E+01    0.56991E+01
    0.21250E+04    0.31319E+03    0.69643E+01   -0.55697E+01    0.55871E+01
    0.21750E+04    0.31349E+03    0.64840E+01   -0.50275E+01    0.54750E+01
    0.22250E+04    0.31379E+03    0.60034E+01   -0.44853E+01    0.53629E+01
    0.22750E+04    0.31410E+03    0.55224E+01   -0.39430E+01    0.52509E+01
    0.23250E+04    0.31440E+03    0.50414E+01   -0.34008E+01    0.51388E+01
    0.23750E+04    0.31470E+03    0.45729E+01   -0.28585E+01    0.50267E+01
    0.24250E+04    0.31498E+03    0.41462E+01   -0.23163E+01    0.49147E+01
    0.24750E+04    0.31523E+03    0.37613E+01   -0.17741E+01    0.48026E+01
    0.25250E+04    0.31547E+03    0.34183E+01   -0.12318E+01    0.46905E+01
    0.25750E+04    0.31567E+03    0.31171E+01   -0.68957E+00    0.45784E+01
    0.26250E+04    0.31586E+03    0.28576E+01   -0.28798E+00    0.44661E+01
    0.26750E+04    0.31602E+03    0.26400E+01   -0.21460E+00    0.43532E+01
    0.27250E+04    0.31616E+03    0.24642E+01   -0.14121E+00    0.42403E+01
    0.27750E+04    0.31627E+03    0.23302E+01   -0.67823E-01    0.41274E+01
    0.28250E+04    0.31636E+03    0.22381E+01    0.55645E-02    0.40145E+01
    0.28750E+04    0.31644E+03    0.21752E+01    0.78952E-01    0.39016E+01
    0.29250E+04    0.31652E+03    0.21123E+01    0.15234E+00    0.37887E+01
    0.29750E+04    0.31659E+03    0.20494E+01    0.22573E+00    0.36758E+01
    0.30250E+04    0.31667E+03    0.19893E+01    0.29911E+00    0.35629E+01
    0.30750E+04    0.31674E+03    0.19323E+01    0.37250E+00    0.34500E+01
    0.31250E+04    0.31681E+03    0.18785E+01    0.44589E+00    0.33371E+01
    0.31750E+04    0.31688E+03    0.18279E+01    0.51927E+00    0.32242E+01
    0.32250E+04    0.31694E+03    0.17803E+01    0.59266E+00    0.31113E+01
    0.32750E+04    0.31701E+03    0.17359E+01    0.96692E+00    0.29131E+01
    0.33250E+04    0.31707E+03    0.16947E+01    0.13746E+01    0.27054E+01
    0.33750E+04    0.31713E+03    0.16565E+01    0.17823E+01    0.24977E+01
    0.34250E+04    0.31719E+03    0.16215E+01    0.21900E+01    0.22900E+01
    0.34750E+04    0.31725E+03    0.15897E+01    0.25977E+01    0.20823E+01
    0.35250E+04    0.31730E+03    0.15582E+01    0.30054E+01    0.18746E+01
    0.35750E+04    0.31736E+03    0.15266E+01    0.34131E+01    0.16669E+01
    0.36250E+04    0.31742E+03    0.14951E+01    0.38208E+01    0.14592E+01
    0.36750E+04    0.31748E+03    0.14619E+01    0.42285E+01    0.12515E+01
    0.37250E+04    0.31756E+03    0.14270E+01    0.46362E+01    0.10438E+01
    0.37750E+04    0.31764E+03    0.13904E+01    0.50438E+01    0.83615E+00
    0.38250E+04    0.31772E+03    0.13519E+01    0.54515E+01    0.62846E+00
    0.38750E+04    0.31782E+03    0.13117E+01    0.58592E+01    0.42077E+00
    0.39250E+04    0.31793E+03    0.12697E+01    0.59848E+01    0.29565E+00
    0.39750E+04    0.31804E+03    0.12259E+01    0.60790E+01    0.17971E+00
    0.40250E+04    0.31816E+03    0.11803E+01    0.61732E+01    0.63768E-01
    0.40750E+04    0.31829E+03    0.11330E+01    0.62674E+01   -0.52174E-01
    0.41250E+04    0.31843E+03    0.10839E+01    0.63616E+01   -0.16812E+00
    0.41750E+04    0.31857E+03    0.10346E+01    0.64558E+01   -0.28406E+00
    0.42250E+04    0.31871E+03    0.98536E+00    0.65500E+01   -0.40000E+00
    0.42750E+04    0.31885E+03    0.93609E+00    0.66442E+01   -0.51594E+00
    0.43250E+04    0.31899E+03    0.88710E+00    0.67384E+01   -0.63188E+00
    0.43750E+04    0.31913E+03    0.84097E+00    0.68326E+01   -0.74783E+00
    0.44250E+04    0.31928E+03    0.79770E+00    0.69268E+01   -0.86377E+00
    0.44750E+04    0.31943E+03    0.75730E+00    0.70210E+01   -0.97971E+00
    0.45250E+04    0.31959E+03    0.71975E+00    0.71152E+01   -0.10957E+01
    0.45750E+04    0.31974E+03    0.68506E+00    0.72007E+01   -0.12147E+01
    0.46250E+04    0.31991E+03    0.65324E+00    0.72073E+01   -0.13613E+01
    0.46750E+04    0.32007E+03    0.62428E+00    0.72140E+01   -0.15080E+01
    0.47250E+04    0.32024E+03    0.59817E+00    0.72207E+01   -0.16547E+01
    0.47750E+04    0.32042E+03    0.57493E+00    0.72273E+01   -0.18013E+01
    0.48250E+04    0.32060E+03    0.55427E+00    0.72340E+01   -0.19480E+01
    0.48750E+04    0.32077E+03    0.53360E+00    0.72407E+01   -0.20947E+01
    0.49250E+04    0.32095E+03    0.51293E+00    0.72473E+01   -0.22413E+01
    0.49750E+04    0.32113E+03    0.49227E+00    0.72540E+01   -0.23880E+01
    0.50250E+04    0.32131E+03    0.47160E+00    0.72607E+01   -0.25347E+01
    0.50750E+04    0.32149E+03    0.45101E+00    0.72673E+01   -0.26813E+01
    0.51250E+04    0.32167E+03    0.43117E+00    0.72740E+01   -0.28280E+01
    0.51750E+04    0.32185E+03    0.41209E+00    0.72807E+01   -0.29747E+01
    0.52250E+04    0.32203E+03    0.39376E+00    0.72873E+01   -0.31213E+01
    0.52750E+04    0.32221E+03    0.37619E+00    0.72940E+01   -0.32680E+01
    0.53250E+04    0.32239E+03    0.35936E+00    0.73137E+01   -0.34150E+01
    0.53750E+04    0.32257E+03    0.34330E+00    0.74512E+01   -0.35650E+01
    0.54250E+04    0.32276E+03    0.32799E+00    0.75888E+01   -0.37150E+01
    0.54750E+04    0.32294E+03    0.31343E+00    0.77263E+01   -0.38650E+01
    0.55250E+04    0.32313E+03    0.29962E+00    0.78637E+01   -0.40150E+01
    0.55750E+04    0.32331E+03    0.28650E+00    0.80013E+01   -0.41650E+01
    0.56250E+04    0.32350E+03    0.27338E+00    0.81387E+01   -0.43150E+01
    0.56750E+04    0.32369E+03    0.26025E+00    0.82762E+01   -0.44650E+01
    0.57250E+04    0.32387E+03    0.24712E+00    0.84138E+01   -0.46150E+01
    0.57750E+04    0.32406E+03    0.23400E+00    0.85512E+01   -0.47650E+01
    0.58250E+04    0.32424E+03    0.22087E+00    0.86887E+01   -0.49150E+01
    0.58750E+04    0.32443E+03    0.20786E+00    0.88262E+01   -0.50650E+01
    0.59250E+04    0.32462E+03    0.19593E+00    0.89637E+01   -0.52150E+01
    0.59750E+04    0.32481E+03    0.18509E+00    0.91013E+01   -0.53650E+01
    0.60250E+04    0.32500E+03    0.17534E+00    0.92387E+01   -0.55150E+01
    0.60750E+04    0.32519E+03    0.16667E+00    0.93763E+01   -0.56650E+01
    0.61250E+04    0.32538E+03    0.15909E+00    0.95354E+01   -0.58039E+01
    0.61750E+04    0.32558E+03    0.15260E+00    0.98893E+01   -0.58433E+01
    0.62250E+04    0.32577E+03    0.14720E+00    0.10243E+02   -0.58826E+01
    0.62750E+04    0.32597E+03    0.14289E+00    0.10597E+02   -0.59219E+01
    0.63250E+04    0.32617E+03    0.13966E+00    0.10951E+02   -0.59612E+01
    0.63750E+04    0.32637E+03    0.13742E+00    0.11305E+02   -0.60006E+01
    0.64250E+04    0.32657E+03    0.13517E+00    0.11659E+02   -0.60399E+01
    0.64750E+04    0.32677E+03    0.13292E+00    0.12013E+02   -0.60792E+01
    0.65250E+04    0.32697E+03    0.13067E+00    0.12367E+02   -0.61185E+01
    0.65750E+04    0.32717E+03    0.12843E+00    0.12721E+02   -0.61579E+01
    0.66250E+04    0.32737E+03    0.12618E+00    0.13075E+02   -0.61972E+01
    0.66750E+04    0.32757E+03    0.12393E+00    0.13429E+02   -0.62365E+01
    0.67250E+04    0.32777E+03    0.12169E+00    0.13783E+02   -0.62758E+01
    0.67750E+04    0.32797E+03    0.11947E+00    0.14137E+02   -0.63152E+01
    0.68250E+04    0.32816E+03    0.11739E+00    0.14490E+02   -0.63545E+01
    0.68750E+04    0.32834E+03    0.11542E+00    0.14844E+02   -0.63938E+01
    0.69250E+04    0.32852E+03    0.11357E+00    0.15198E+02   -0.64331E+01
    0.69750E+04    0.32869E+03    0.11185E+00    0.15552E+02   -0.64725E+01
    0.70250E+04    0.32886E+03    0.11025E+00    0.15907E+02   -0.65046E+01
    0.70750E+04    0.32902E+03    0.10876E+00    0.16262E+02   -0.65201E+01
    0.71250E+04    0.32917E+03    0.10741E+00    0.16618E+02   -0.65356E+01
    0.71750E+04    0.32932E+03    0.10617E+00    0.16974E+02   -0.65510E+01
    0.72250E+04    0.32946E+03    0.10505E+00    0.17329E+02   -0.65665E+01
    0.72750E+04    0.32959E+03    0.10402E+00    0.17685E+02   -0.65820E+01
    0.73250E+04    0.32972E+03    0.10299E+00    0.18041E+02   -0.65974E+01
    0.73750E+04    0.32986E+03    0.10196E+00    0.18396E+02   -0.66129E+01
    0.74250E+04    0.32999E+03    0.10093E+00    0.18752E+02   -0.66284E+01
    0.74750E+04    0.33013E+03    0.99897E-01    0.19108E+02   -0.66438E+01
    0.75250E+04    0.33026E+03    0.98866E-01    0.19463E+02   -0.66593E+01
    0.75750E+04    0.33040E+03    0.97835E-01    0.19819E+02   -0.66747E+01
    0.76250E+04    0.33053E+03    0.96804E-01    0.20175E+02   -0.66902E+01
    0.76750E+04    0.33067E+03    0.95773E-01    0.20530E+02   -0.67057E+01
    0.77250E+04    0.33080E+03    0.94742E-01    0.20886E+02   -0.67211E+01
    0.77750E+04    0.33093E+03    0.93680E-01    0.21242E+02   -0.67366E+01
    0.78250E+04    0.33107E+03    0.92584E-01    0.21597E+02   -0.67521E+01
    0.78750E+04    0.33119E+03    0.91453E-01    0.21953E+02   -0.67675E+01
    0.79250E+04    0.33132E+03    0.90287E-01    0.22309E+02   -0.67830E+01
    0.79750E+04    0.33145E+03    0.89087E-01    0.22664E+02   -0.67985E+01
    0.80250E+04    0.33157E+03    0.87852E-01    0.22869E+02   -0.68165E+01
    0.80750E+04    0.33169E+03    0.86583E-01    0.23056E+02   -0.68349E+01
    0.81250E+04    0.33181E+03    0.85280E-01    0.23244E+02   -0.68532E+01
    0.81750E+04    0.33193E+03    0.83942E-01    0.23432E+02   -0.68716E+01
    0.82250E+04    0.33205E+03    0.82569E-01    0.23619E+02   -0.68899E+01
    0.82750E+04    0.33217E+03    0.81193E-01    0.23807E+02   -0.69083E+01
    0.83250E+04    0.33228E+03    0.79817E-01    0.23995E+02   -0.69266E+01
    0.83750E+04    0.33240E+03    0.78440E-01    0.24182E+02   -0.69450E+01
    0.84250E+04    0.33252E+03    0.77064E-01    0.24370E+02   -0.69633E+01
    0.84750E+04    0.33263E+03    0.75688E-01    0.24557E+02   -0.69817E+01
    0.85250E+04    0.33275E+03    0.74312E-01    0.24745E+02   -0.70000E+01
    0.85750E+04    0.33286E+03    0.72936E-01    0.24933E+02   -0.70183E+01
    0.86250E+04    0.33298E+03    0.71560E-01    0.25120E+02   -0.70367E+01
    0.86750E+04    0.33310E+03    0.70183E-01    0.25308E+02   -0.70550E+01
    0.87250E+04    0.33321E+03    0.68807E-01    0.25495E+02   -0.70734E+01
    0.87750E+04    0.33333E+03    0.67431E-01    0.25683E+02   -0.70917E+01
    0.88250E+04    0.33345E+03    0.66053E-01    0.25871E+02   -0.71101E+01
    0.88750E+04    0.33357E+03    0.64650E-01    0.26058E+02   -0.71284E+01
    0.89250E+04    0.33368E+03    0.63225E-01    0.26246E+02   -0.71468E+01
    0.89750E+04    0.33380E+03    0.61775E-01    0.26434E+02   -0.71651E+01
    0.90250E+04    0.33393E+03    0.60302E-01    0.26621E+02   -0.71835E+01
    0.90750E+04    0.33405E+03    0.58805E-01    0.26798E+02   -0.72044E+01
    0.91250E+04    0.33417E+03    0.57284E-01    0.26879E+02   -0.72488E+01
    0.91750E+04    0.33430E+03    0.55740E-01    0.26959E+02   -0.72931E+01
    0.92250E+04    0.33443E+03    0.54172E-01    0.27040E+02   -0.73375E+01
    0.92750E+04    0.33455E+03    0.52581E-01    0.27121E+02   -0.73819E+01
    0.93250E+04    0.33468E+03    0.50968E-01    0.27201E+02   -0.74262E+01
    0.93750E+04    0.33481E+03    0.49355E-01    0.27282E+02   -0.74706E+01
    0.94250E+04    0.33494E+03    0.47742E-01    0.27363E+02   -0.75149E+01
    0.94750E+04    0.33507E+03    0.46129E-01    0.27443E+02   -0.75593E+01
    0.95250E+04    0.33520E+03    0.44516E-01    0.27524E+02   -0.76036E+01
    0.95750E+04    0.33533E+03    0.42903E-01    0.27605E+02   -0.76480E+01
    0.96250E+04    0.33546E+03    0.41290E-01    0.27685E+02   -0.76923E+01
    0.96750E+04    0.33559E+03    0.39677E-01    0.27766E+02   -0.77367E+01
    0.97250E+04    0.33571E+03    0.38065E-01    0.27846E+02   -0.77810E+01
    0.97750E+04    0.33584E+03    0.36452E-01    0.27927E+02   -0.78254E+01
    0.98250E+04    0.33597E+03    0.34839E-01    0.28008E+02   -0.78698E+01
    0.98750E+04    0.33610E+03    0.33226E-01    0.28088E+02   -0.79141E+01
    0.99250E+04    0.33623E+03    0.31613E-01    0.28169E+02   -0.79585E+01
    0.99750E+04    0.33636E+03    0.30000E-01    0.28250E+02   -0.80028E+01
    0.10025E+05    0.33649E+03    0.28387E-01    0.28330E+02   -0.80472E+01
    0.10075E+05    0.33662E+03    0.26812E-01    0.28411E+02   -0.80915E+01
    0.10125E+05    0.33676E+03    0.25364E-01    0.28492E+02   -0.81359E+01
    0.10175E+05    0.33690E+03    0.24042E-01    0.28572E+02   -0.81802E+01
    0.10225E+05    0.33705E+03    0.22847E-01    0.28653E+02   -0.82246E+01
    0.10275E+05    0.33720E+03    0.21778E-01    0.28734E+02   -0.82690E+01
    0.10325E+05    0.33736E+03    0.20836E-01    0.28781E+02   -0.82906E+01
    0.10375E+05    0.33753E+03    0.20020E-01    0.28750E+02   -0.82594E+01
    0.10425E+05    0.33771E+03    0.19332E-01    0.28719E+02   -0.82281E+01
    0.10475E+05    0.33788E+03    0.18769E-01    0.28688E+02   -0.81969E+01
    0.10525E+05    0.33807E+03    0.18333E-01    0.28657E+02   -0.81656E+01
    0.10575E+05    0.33826E+03    0.17986E-01    0.28626E+02   -0.81344E+01
    0.10625E+05    0.33845E+03    0.17639E-01    0.28595E+02   -0.81031E+01
    0.10675E+05    0.33864E+03    0.17292E-01    0.28564E+02   -0.80719E+01
    0.10725E+05    0.33883E+03    0.16944E-01    0.28534E+02   -0.80406E+01
    0.10775E+05    0.33902E+03    0.16597E-01    0.28503E+02   -0.80094E+01
    0.10825E+05    0.33921E+03    0.16250E-01    0.28472E+02   -0.79781E+01
    0.10875E+05    0.33940E+03    0.15903E-01    0.28441E+02   -0.79469E+01
    0.10925E+05    0.33959E+03    0.15556E-01    0.28410E+02   -0.79156E+01
    0.10975E+05    0.33978E+03    0.15208E-01    0.28379E+02   -0.78844E+01
    0.11025E+05    0.33997E+03    0.14861E-01    0.28348E+02   -0.78531E+01
    0.11075E+05    0.34016E+03    0.14514E-01    0.28317E+02   -0.78219E+01
    0.11125E+05    0.34035E+03    0.14167E-01    0.28286E+02   -0.77906E+01
    0.11175E+05    0.34053E+03    0.13819E-01    0.28255E+02   -0.77594E+01
    0.11225E+05    0.34072E+03    0.13472E-01    0.28224E+02   -0.77281E+01
    0.11275E+05    0.34091E+03    0.13125E-01    0.28194E+02   -0.76969E+01
    0.11325E+05    0.34110E+03    0.12778E-01    0.28163E+02   -0.76656E+01
    0.11375E+05    0.34129E+03    0.12431E-01    0.28132E+02   -0.76344E+01
    0.11425E+05    0.34148E+03    0.12083E-01    0.28101E+02   -0.76031E+01
    0.11475E+05    0.34167E+03    0.11736E-01    0.28070E+02   -0.75719E+01
    0.11525E+05    0.34188E+03    0.11406E-01    0.28039E+02   -0.75406E+01
    0.11575E+05    0.34212E+03    0.11111E-01    0.28008E+02   -0.75094E+01
    0.11625E+05    0.34239E+03    0.10851E-01    0.27977E+02   -0.74781E+01
    0.11675E+05    0.34270E+03    0.10625E-01    0.27946E+02   -0.74469E+01
    0.11725E+05    0.34304E+03    0.10434E-01    0.27915E+02   -0.74156E+01
    0.11775E+05    0.34342E+03    0.10278E-01    0.27792E+02   -0.74236E+01
    0.11825E+05    0.34383E+03    0.10156E-01    0.27575E+02   -0.74708E+01
    0.11875E+05    0.34427E+03    0.10069E-01    0.27358E+02   -0.75181E+01
    0.11925E+05    0.34475E+03    0.10017E-01    0.27142E+02   -0.75653E+01
    0.11975E+05    0.34526E+03    0.10000E-01    0.26925E+02   -0.76125E+01
    0.12025E+05    0.34579E+03    0.10000E-01    0.26708E+02   -0.76597E+01
    0.12075E+05    0.34632E+03    0.10000E-01    0.26492E+02   -0.77069E+01
    0.12125E+05    0.34685E+03    0.10000E-01    0.26275E+02   -0.77542E+01
    0.12175E+05    0.34738E+03    0.10000E-01    0.26058E+02   -0.78014E+01
    0.12225E+05    0.34791E+03    0.10000E-01    0.25842E+02   -0.78486E+01
    0.12275E+05    0.34844E+03    0.10000E-01    0.25625E+02   -0.78958E+01
    0.12325E+05    0.34897E+03    0.10000E-01    0.25408E+02   -0.79431E+01
    0.12375E+05    0.34950E+03    0.10000E-01    0.25192E+02   -0.79903E+01
    0.12425E+05    0.35002E+03    0.10000E-01    0.24975E+02   -0.80375E+01
    0.12475E+05    0.35055E+03    0.10000E-01    0.24758E+02   -0.80847E+01
    0.12525E+05    0.35108E+03    0.10000E-01    0.24542E+02   -0.81319E+01
    0.12575E+05    0.35161E+03    0.10000E-01    0.24325E+02   -0.81792E+01
    0.12625E+05    0.35214E+03    0.10000E-01    0.24108E+02   -0.82264E+01
    0.12675E+05    0.35267E+03    0.10000E-01    0.23892E+02   -0.82736E+01
    0.12725E+05    0.35320E+03    0.10000E-01    0.23675E+02   -0.83208E+01
    0.12775E+05    0.35373E+03    0.10000E-01    0.23458E+02   -0.83681E+01
    0.12825E+05    0.35426E+03    0.10000E-01    0.23242E+02   -0.84153E+01
    0.12875E+05    0.35478E+03    0.10000E-01    0.23025E+02   -0.84625E+01
    0.12925E+05    0.35531E+03    0.10000E-01    0.22808E+02   -0.85097E+01
    0.12975E+05    0.35584E+03    0.10000E-01    0.22592E+02   -0.85569E+01
    0.13025E+05    0.35637E+03    0.10000E-01    0.22375E+02   -0.86042E+01
    0.13075E+05    0.35690E+03    0.10000E-01    0.22158E+02   -0.86514E+01
    0.13125E+05    0.35743E+03    0.10000E-01    0.21942E+02   -0.86986E+01
    0.13175E+05    0.35796E+03    0.10000E-01    0.21725E+02   -0.87458E+01
    0.13225E+05    0.35849E+03    0.10000E-01    0.21508E+02   -0.87931E+01
    0.13275E+05    0.35902E+03    0.10000E-01    0.21292E+02   -0.88403E+01
    0.13325E+05    0.35955E+03    0.10000E-01    0.21075E+02   -0.88875E+01
    0.13375E+05    0.36009E+03    0.10000E-01    0.20858E+02   -0.89347E+01
    0.13425E+05    0.36063E+03    0.10000E-01    0.20642E+02   -0.89819E+01
    0.13475E+05    0.36119E+03    0.10000E-01    0.20425E+02   -0.90292E+01
    0.13525E+05    0.36175E+03    0.10000E-01    0.20208E+02   -0.90764E+01
    0.13575E+05    0.36231E+03    0.10000E-01    0.19991E+02   -0.90197E+01
    0.13625E+05    0.36288E+03    0.10000E-01    0.19773E+02   -0.88591E+01
    0.13675E+05    0.36346E+03    0.10000E-01    0.19556E+02   -0.86986E+01
    0.13725E+05    0.36405E+03    0.10000E-01    0.19338E+02   -0.85380E+01
    0.13775E+05    0.36464E+03    0.10000E-01    0.19120E+02   -0.83774E+01
    0.13825E+05    0.36524E+03    0.10000E-01    0.18903E+02   -0.82169E+01
    0.13875E+05    0.36584E+03    0.10000E-01    0.18685E+02   -0.80563E+01
    0.13925E+05    0.36644E+03    0.10000E-01    0.18467E+02   -0.78957E+01
    0.13975E+05    0.36703E+03    0.10000E-01    0.18250E+02   -0.77352E+01
    0.14025E+05    0.36763E+03    0.10000E-01    0.18032E+02   -0.75746E+01
    0.14075E+05    0.36823E+03    0.10000E-01    0.17814E+02   -0.74140E+01
    0.14125E+05    0.36882E+03    0.10000E-01    0.17597E+02   -0.72535E+01
    0.14175E+05    0.36942E+03    0.10000E-01    0.17379E+02   -0.70929E+01
    0.14225E+05    0.37002E+03    0.10000E-01    0.17161E+02   -0.69323E+01
    0.14275E+05    0.37061E+03    0.10000E-01    0.16944E+02   -0.67717E+01
    0.14325E+05    0.37121E+03    0.10000E-01    0.16726E+02   -0.66112E+01
    0.14375E+05    0.37181E+03    0.10000E-01    0.16508E+02   -0.64506E+01
    0.14425E+05    0.37241E+03    0.10000E-01    0.16291E+02   -0.62900E+01
    0.14475E+05    0.37300E+03    0.10000E-01    0.16073E+02   -0.61295E+01
    0.14525E+05    0.37360E+03    0.10000E-01    0.15855E+02   -0.59689E+01
    0.14575E+05    0.37420E+03    0.10000E-01    0.15638E+02   -0.58083E+01
    0.14625E+05    0.37479E+03    0.10000E-01    0.15420E+02   -0.56478E+01
    0.14675E+05    0.37539E+03    0.10000E-01    0.15202E+02   -0.54872E+01
    0.14725E+05    0.37599E+03    0.10000E-01    0.14984E+02   -0.53266E+01
    0.14775E+05    0.37658E+03    0.10000E-01    0.14767E+02   -0.51661E+01
    0.14825E+05    0.37718E+03    0.10000E-01    0.14549E+02   -0.50055E+01
    0.14875E+05    0.37778E+03    0.10000E-01    0.14331E+02   -0.48449E+01
    0.14925E+05    0.37837E+03    0.10000E-01    0.14114E+02   -0.46843E+01
    0.14975E+05    0.37897E+03    0.10000E-01    0.13896E+02   -0.45238E+01
    0.15025E+05    0.37957E+03    0.10000E-01    0.13678E+02   -0.43632E+01
    0.15075E+05    0.38017E+03    0.10000E-01    0.13461E+02   -0.42026E+01
    0.15125E+05    0.38076E+03    0.10000E-01    0.13243E+02   -0.40421E+01
    0.15175E+05    0.38136E+03    0.10000E-01    0.13025E+02   -0.38815E+01
    0.15225E+05    0.38196E+03    0.10000E-01    0.12808E+02   -0.37209E+01
    0.15275E+05    0.38255E+03    0.10000E-01    0.12590E+02   -0.35604E+01
    0.15325E+05    0.38315E+03    0.10000E-01    0.12372E+02   -0.33998E+01
    0.15375E+05    0.38375E+03    0.10000E-01    0.12155E+02   -0.32392E+01
    0.15425E+05    0.38434E+03    0.10000E-01    0.11937E+02   -0.30787E+01
    0.15475E+05    0.38494E+03    0.10000E-01    0.11719E+02   -0.29181E+01
    0.15525E+05    0.38554E+03    0.10000E-01    0.11502E+02   -0.27575E+01
    0.15575E+05    0.38614E+03    0.10000E-01    0.11284E+02   -0.25970E+01
    0.15625E+05    0.38673E+03    0.10000E-01    0.11066E+02   -0.24364E+01
    0.15675E+05    0.38733E+03    0.10000E-01    0.10848E+02   -0.22758E+01
    0.15725E+05    0.38793E+03    0.10000E-01    0.10631E+02   -0.21152E+01
    0.15775E+05    0.38856E+03    0.10000E-01    0.10413E+02   -0.19547E+01
    0.15825E+05    0.38930E+03    0.10000E-01    0.10195E+02   -0.17941E+01
    0.15875E+05    0.39015E+03    0.10000E-01    0.99777E+01   -0.16335E+01
    0.15925E+05    0.39111E+03    0.10000E-01    0.97601E+01   -0.14730E+01
    0.15975E+05    0.39219E+03    0.10000E-01    0.95424E+01   -0.13124E+01
    0.16025E+05    0.39337E+03    0.10000E-01    0.93900E+01   -0.12000E+01
    0.16075E+05    0.39467E+03    0.10000E-01    0.93900E+01   -0.12000E+01
    0.16125E+05    0.39608E+03    0.10000E-01    0.93900E+01   -0.12000E+01
    0.16175E+05    0.39760E+03    0.10000E-01    0.93900E+01   -0.12000E+01
    0.16225E+05    0.39923E+03    0.10000E-01    0.93900E+01   -0.12000E+01
    0.16275E+05    0.40094E+03    0.10000E-01    0.93900E+01   -0.12000E+01
    0.16325E+05    0.40264E+03    0.10000E-01    0.93900E+01   -0.12000E+01
    0.16375E+05    0.40435E+03    0.10000E-01    0.93900E+01   -0.12000E+01
    0.16425E+05    0.40606E+03    0.10000E-01    0.93900E+01   -0.12000E+01
    0.16475E+05    0.40777E+03    0.10000E-01    0.93900E+01   -0.12000E+01
    0.16525E+05    0.40948E+03    0.10000E-01    0.93900E+01   -0.12000E+01
    0.16575E+05    0.41119E+03    0.10000E-01    0.93900E+01   -0.12000E+01
    0.16625E+05    0.41289E+03    0.10000E-01    0.93900E+01   -0.12000E+01
    0.16675E+05    0.41460E+03    0.10000E-01    0.93900E+01   -0.12000E+01
    0.16725E+05    0.41631E+03    0.10000E-01    0.93900E+01   -0.12000E+01
    0.16775E+05    0.41802E+03    0.10000E-01    0.93900E+01   -0.12000E+01
    0.16825E+05    0.41973E+03    0.10000E-01    0.93900E+01   -0.12000E+01
    0.16875E+05    0.42143E+03    0.10000E-01    0.93900E+01   -0.12000E+01
    0.16925E+05    0.42314E+03    0.10000E-01    0.93900E+01   -0.12000E+01
    0.16975E+05    0.42485E+03    0.10000E-01    0.93900E+01   -0.12000E+01
    0.17025E+05    0.42652E+03    0.10000E-01    0.93900E+01   -0.12000E+01
    0.17075E+05    0.42810E+03    0.10000E-01    0.93900E+01   -0.12000E+01
    0.17125E+05    0.42959E+03    0.10000E-01    0.93900E+01   -0.12000E+01
    0.17175E+05    0.43101E+03    0.10000E-01    0.93900E+01   -0.12000E+01
    0.17225E+05    0.43233E+03    0.10000E-01    0.93900E+01   -0.12000E+01
    0.17275E+05    0.43358E+03    0.10000E-01    0.93900E+01   -0.12000E+01
    0.17325E+05    0.43473E+03    0.10000E-01    0.93900E+01   -0.12000E+01
    0.17375E+05    0.43581E+03    0.10000E-01    0.93900E+01   -0.12000E+01
    0.17425E+05    0.43680E+03    0.10000E-01    0.93900E+01   -0.12000E+01
    0.17475E+05    0.43770E+03    0.10000E-01    0.93900E+01   -0.12000E+01
    0.17525E+05    0.43856E+03    0.10000E-01    0.93900E+01   -0.12000E+01
    0.17575E+05    0.43942E+03    0.10000E-01    0.93900E+01   -0.12000E+01
    0.17625E+05    0.44029E+03    0.10000E-01    0.93900E+01   -0.12000E+01
    0.17675E+05    0.44115E+03    0.10000E-01    0.93900E+01   -0.12000E+01
    0.17725E+05    0.44201E+03    0.10000E-01    0.93900E+01   -0.12000E+01
    0.17775E+05    0.44287E+03    0.10000E-01    0.93900E+01   -0.12000E+01
    0.17825E+05    0.44373E+03    0.10000E-01    0.93900E+01   -0.12000E+01
    0.17875E+05    0.44460E+03    0.10000E-01    0.93900E+01   -0.12000E+01
    0.17925E+05    0.44546E+03    0.10000E-01    0.93900E+01   -0.12000E+01
    0.17975E+05    0.44634E+03    0.10000E-01    0.93900E+01   -0.12000E+01
    0.18025E+05    0.44724E+03    0.10000E-01    0.93900E+01   -0.12000E+01
    0.18075E+05    0.44816E+03    0.10000E-01    0.93900E+01   -0.12000E+01
    0.18125E+05    0.44910E+03    0.10000E-01    0.93900E+01   -0.12000E+01
    0.18175E+05    0.45005E+03    0.10000E-01    0.93900E+01   -0.12000E+01
    0.18225E+05    0.45103E+03    0.10000E-01    0.93900E+01   -0.12000E+01
    0.18275E+05    0.45202E+03    0.10000E-01    0.93900E+01   -0.12000E+01
    0.18325E+05    0.45303E+03    0.10000E-01    0.93900E+01   -0.12000E+01
    0.18375E+05    0.45407E+03    0.10000E-01    0.93900E+01   -0.12000E+01
    0.18425E+05    0.45512E+03    0.10000E-01    0.93900E+01   -0.12000E+01
    0.18475E+05    0.45617E+03    0.10000E-01    0.93900E+01   -0.12000E+01
    0.18525E+05    0.45722E+03    0.10000E-01    0.93900E+01   -0.12000E+01
    0.18575E+05    0.45828E+03    0.10000E-01    0.93900E+01   -0.12000E+01
    0.18625E+05    0.45934E+03    0.10000E-01    0.93900E+01   -0.12000E+01
    0.18675E+05    0.46041E+03    0.10000E-01    0.93900E+01   -0.12000E+01
    0.18725E+05    0.46147E+03    0.10000E-01    0.93900E+01   -0.12000E+01
    0.18775E+05    0.46254E+03    0.10000E-01    0.93900E+01   -0.12000E+01
    0.18825E+05    0.46361E+03    0.10000E-01    0.93900E+01   -0.12000E+01
    0.18875E+05    0.46469E+03    0.10000E-01    0.93900E+01   -0.12000E+01
    0.18925E+05    0.46577E+03    0.10000E-01    0.93900E+01   -0.12000E+01
    0.18975E+05    0.46685E+03    0.10000E-01    0.93900E+01   -0.12000E+01
    0.19025E+05    0.46793E+03    0.10000E-01    0.93900E+01   -0.12000E+01
    0.19075E+05    0.46902E+03    0.10000E-01    0.93900E+01   -0.12000E+01
    0.19125E+05    0.47011E+03    0.10000E-01    0.93900E+01   -0.12000E+01
    0.19175E+05    0.47120E+03    0.10000E-01    0.93900E+01   -0.12000E+01
    0.19225E+05    0.47230E+03    0.10000E-01    0.93900E+01   -0.12000E+01
    0.19275E+05    0.47340E+03    0.10000E-01    0.93900E+01   -0.12000E+01
    0.19325E+05    0.47450E+03    0.10000E-01    0.93900E+01   -0.12000E+01
    0.19375E+05    0.47561E+03    0.10000E-01    0.93900E+01   -0.12000E+01
    0.19425E+05    0.47672E+03    0.10000E-01    0.93900E+01   -0.12000E+01
    0.19475E+05    0.47783E+03    0.10000E-01    0.93900E+01   -0.12000E+01
    0.19525E+05    0.47895E+03    0.10000E-01    0.93900E+01   -0.12000E+01
    0.19575E+05    0.48006E+03    0.10000E-01    0.93900E+01   -0.12000E+01
    0.19625E+05    0.48119E+03    0.10000E-01    0.93900E+01   -0.12000E+01
    0.19675E+05    0.48231E+03    0.10000E-01    0.93900E+01   -0.12000E+01